
     RDKit          3D

 26 27  0  0  0  0  0  0  0  0999 V2000
   -1.0550   -0.2295   -0.2010 C   0  0  0  0  0  0  0  0  0  0  0  0
   -0.6160    1.2028   -0.6186 C   0  0  0  0  0  0  0  0  0  0  0  0
    0.4167   -0.6122   -0.6652 C   0  0  0  0  0  0  0  0  0  0  0  0
    0.3114    0.5829   -1.6308 C   0  0  0  0  0  0  0  0  0  0  0  0
    0.2620    1.9101    0.4633 C   0  0  0  0  0  0  0  0  0  0  0  0
   -2.1783   -0.8360   -1.0766 C   0  0  0  0  0  0  0  0  0  0  0  0
   -1.4355   -0.4889    1.2743 C   0  0  0  0  0  0  0  0  0  0  0  0
    2.5268   -1.2206    0.8183 C   0  0  0  0  0  0  0  0  0  0  0  0
    1.4629   -0.2534    0.3960 C   0  0  0  0  0  0  0  0  0  0  0  0
    1.3801    0.9866    0.9359 C   0  0  0  0  0  0  0  0  0  0  0  0
   -1.4147    1.8531   -1.0444 H   0  0  0  0  0  0  0  0  0  0  0  0
    0.5310   -1.6088   -1.1506 H   0  0  0  0  0  0  0  0  0  0  0  0
    1.2607    1.1299   -1.8493 H   0  0  0  0  0  0  0  0  0  0  0  0
   -0.1567    0.3461   -2.6146 H   0  0  0  0  0  0  0  0  0  0  0  0
    0.7115    2.8361    0.0373 H   0  0  0  0  0  0  0  0  0  0  0  0
   -0.3688    2.2149    1.3286 H   0  0  0  0  0  0  0  0  0  0  0  0
   -3.1567   -0.3577   -0.8417 H   0  0  0  0  0  0  0  0  0  0  0  0
   -2.0442   -0.7281   -2.1746 H   0  0  0  0  0  0  0  0  0  0  0  0
   -2.2701   -1.9306   -0.8905 H   0  0  0  0  0  0  0  0  0  0  0  0
   -1.5572   -1.5810    1.4571 H   0  0  0  0  0  0  0  0  0  0  0  0
   -0.7093   -0.1476    2.0416 H   0  0  0  0  0  0  0  0  0  0  0  0
   -2.3965    0.0184    1.5190 H   0  0  0  0  0  0  0  0  0  0  0  0
    2.4371   -1.4312    1.9080 H   0  0  0  0  0  0  0  0  0  0  0  0
    2.4419   -2.1876    0.2734 H   0  0  0  0  0  0  0  0  0  0  0  0
    3.5339   -0.7940    0.6098 H   0  0  0  0  0  0  0  0  0  0  0  0
    2.0828    1.3262    1.6953 H   0  0  0  0  0  0  0  0  0  0  0  0
  1  7  1  0
  1  3  1  0
  1  2  1  0
  1  6  1  0
  2  4  1  0
  2 11  1  0
  2  5  1  0
  3 12  1  0
  3  4  1  0
  3  9  1  0
  4 14  1  0
  4 13  1  0
  5 10  1  0
  5 16  1  0
  5 15  1  0
  6 17  1  0
  6 19  1  0
  6 18  1  0
  7 21  1  0
  7 22  1  0
  7 20  1  0
  8 25  1  0
  8 24  1  0
  8 23  1  0
  8  9  1  0
  9 10  2  0
 10 26  1  0
M  END
